REMARK  Name = ZINC00000490
REMARK                            x       y       z     vdW  Elec       q    Type
REMARK                         _______ _______ _______ _____ _____    ______ ____
ROOT
ATOM      1  C   LIG    1       -0.101  -0.155   0.167  0.00  0.00    +0.100 A 
ATOM      2  C   LIG    1        0.555  -1.321   0.586  0.00  0.00    +0.131 A 
ATOM      3  C   LIG    1        1.787  -1.676   0.030  0.00  0.00    +0.046 A 
ATOM      4  C   LIG    1        2.354  -0.863  -0.947  0.00  0.00    +0.004 A 
ATOM      5  C   LIG    1        1.724   0.306  -1.359  0.00  0.00    +0.001 A 
ATOM      6  C   LIG    1        0.495   0.665  -0.801  0.00  0.00    +0.018 A 
ENDROOT
BRANCH   1   7
ATOM      7  C   LIG    1       -1.442   0.143   0.733  0.00  0.00    +0.342 C 
ATOM      8  O   LIG    1       -2.114  -0.677   1.343  0.00  0.00    -0.245 OA
BRANCH   7  10
ATOM      9  C   LIG    1       -3.097   1.778   0.940  0.00  0.00    +0.280 C 
ATOM     10  O   LIG    1       -1.794   1.426   0.474  0.00  0.00    -0.464 OA
ENDBRANCH   7  10
ENDBRANCH   1   7
BRANCH   2  11
ATOM     11  O   LIG    1        3.536  -1.188  -1.543  0.00  0.00    -0.506 OA
ATOM     12  H   LIG    1        3.826  -2.054  -1.212  0.00  0.00    +0.292 HD
ENDBRANCH   2  11
TORSDOF 3
