REMARK  Name = ZINC00000125
REMARK                            x       y       z     vdW  Elec       q    Type
REMARK                         _______ _______ _______ _____ _____    ______ ____
ROOT
ATOM      1  C   LIG    1       -0.687  -0.493  -0.868  0.00  0.00    +0.282 C 
ENDROOT
BRANCH   1   2
ATOM      2  C   LIG    1       -0.112   0.616   0.007  0.00  0.00    +0.005 A 
ATOM      3  C   LIG    1       -0.366   0.667   1.390  0.00  0.00    +0.008 A 
ATOM      4  C   LIG    1        0.180   1.681   2.181  0.00  0.00    +0.000 A 
ATOM      5  C   LIG    1        0.990   2.657   1.604  0.00  0.00    +0.000 A 
ATOM      6  C   LIG    1        1.255   2.620   0.237  0.00  0.00    +0.000 A 
ATOM      7  C   LIG    1        0.710   1.607  -0.557  0.00  0.00    +0.008 A 
ENDBRANCH   1   2
BRANCH   1   9
ATOM      8  C   LIG    1       -3.321  -0.493  -0.868  0.00  0.00    +0.008 C 
ATOM      9  C   LIG    1       -2.131  -0.493  -0.868  0.00  0.00    -0.057 C 
ENDBRANCH   1   9
BRANCH   1  10
ATOM     10  O   LIG    1       -0.197  -1.736  -0.347  0.00  0.00    -0.429 OA
BRANCH  10  11
ATOM     11  C   LIG    1        0.565  -2.456  -1.190  0.00  0.00    +0.399 C 
ATOM     12  N   LIG    1        1.079  -3.523  -0.539  0.00  0.00    -0.295 N 
ATOM     13  H   LIG    1        1.770  -4.085  -1.012  0.00  0.00    +0.148 HD
ATOM     14  H   LIG    1        0.969  -3.584   0.462  0.00  0.00    +0.148 HD
ATOM     15  O   LIG    1        0.812  -2.210  -2.358  0.00  0.00    -0.227 OA
ENDBRANCH  10  11
ENDBRANCH   1  10
TORSDOF 4
