REMARK  Name = ZINC00000573
REMARK                            x       y       z     vdW  Elec       q    Type
REMARK                         _______ _______ _______ _____ _____    ______ ____
ROOT
ATOM      1  C   LIG    1       -0.221   0.642   0.360  0.00  0.00    +0.167 C 
ENDROOT
BRANCH   1   2
ATOM      2  C   LIG    1       -1.164   0.092  -0.733  0.00  0.00    +0.192 C 
ATOM      3  O   LIG    1       -1.313  -1.330  -0.594  0.00  0.00    -0.343 OA
ATOM      4  C   LIG    1       -2.546  -1.524   0.117  0.00  0.00    +0.323 C 
ATOM      5  O   LIG    1       -3.078  -0.249   0.472  0.00  0.00    -0.351 OA
ATOM      6  C   LIG    1       -2.572   0.614  -0.541  0.00  0.00    +0.199 C 
ENDBRANCH   1   2
BRANCH   1   8
ATOM      7  C   LIG    1        2.052   0.855   1.362  0.00  0.00    +0.192 C 
ATOM      8  N   LIG    1        1.277   0.244   0.193  0.00  0.00    +0.239 N 
ATOM      9  C   LIG    1        1.458  -1.272   0.241  0.00  0.00    +0.192 C 
ATOM     10  C   LIG    1        1.860   0.780  -1.106  0.00  0.00    +0.192 C 
ENDBRANCH   1   8
TORSDOF 2
