REMARK  Name = ZINC00000558
REMARK                            x       y       z     vdW  Elec       q    Type
REMARK                         _______ _______ _______ _____ _____    ______ ____
ROOT
ATOM      1  C   LIG    1        0.592   1.537   0.295  0.00  0.00    +0.010 A 
ATOM      2  C   LIG    1       -0.076   0.304   0.413  0.00  0.00    -0.014 A 
ATOM      3  C   LIG    1        0.694  -0.859   0.584  0.00  0.00    +0.010 A 
ATOM      4  C   LIG    1        2.087  -0.792   0.635  0.00  0.00    +0.046 A 
ATOM      5  C   LIG    1        2.724   0.437   0.522  0.00  0.00    +0.117 A 
ATOM      6  C   LIG    1        1.988   1.602   0.354  0.00  0.00    +0.046 A 
ENDROOT
BRANCH   5   7
ATOM      7  O   LIG    1        4.083   0.446   0.589  0.00  0.00    -0.507 OA
ATOM      8  H   LIG    1        4.406   1.363   0.567  0.00  0.00    +0.292 HD
ENDBRANCH   5   7
BRANCH   2   9
ATOM      9  C   LIG    1       -1.588   0.258   0.352  0.00  0.00    +0.189 C 
BRANCH   9  10
ATOM     10  O   LIG    1       -2.077  -0.852   1.121  0.00  0.00    -0.382 OA
ATOM     11  H   LIG    1       -1.816  -0.679   2.050  0.00  0.00    +0.210 HD
ENDBRANCH   9  10
BRANCH   9  12
ATOM     12  C   LIG    1       -2.128   0.069  -1.080  0.00  0.00    +0.164 C 
BRANCH  12  13
ATOM     13  N   LIG    1       -1.898  -1.346  -1.505  0.00  0.00    +0.221 N 
ATOM     14  H   LIG    1       -2.451  -1.617  -2.324  0.00  0.00    +0.200 HD
ATOM     15  H   LIG    1       -2.168  -1.947  -0.707  0.00  0.00    +0.200 HD
ATOM     16  H   LIG    1       -0.903  -1.524  -1.693  0.00  0.00    +0.200 HD
ENDBRANCH  12  13
ENDBRANCH   9  12
ENDBRANCH   2   9
TORSDOF 5
