REMARK  Name = ZINC00000036
REMARK                            x       y       z     vdW  Elec       q    Type
REMARK                         _______ _______ _______ _____ _____    ______ ____
ROOT
ATOM      1  C   LIG    1       -2.615  -0.329   0.271  0.00  0.00    +0.000 A 
ATOM      2  C   LIG    1       -1.791  -1.452   0.313  0.00  0.00    +0.000 A 
ATOM      3  C   LIG    1       -0.402  -1.301   0.297  0.00  0.00    +0.006 A 
ATOM      4  C   LIG    1        0.183  -0.026   0.246  0.00  0.00    -0.014 A 
ATOM      5  C   LIG    1       -0.661   1.092   0.190  0.00  0.00    +0.006 A 
ATOM      6  C   LIG    1       -2.050   0.943   0.206  0.00  0.00    +0.000 A 
ENDROOT
BRANCH   4   7
ATOM      7  C   LIG    1        1.691   0.108   0.226  0.00  0.00    +0.190 C 
BRANCH   7   8
ATOM      8  C   LIG    1        2.296  -0.100  -1.201  0.00  0.00    +0.075 C 
ATOM      9  O   LIG    1        2.855   0.948  -1.665  0.00  0.00    -0.547 OA
ATOM     10  O   LIG    1        2.248  -1.268  -1.682  0.00  0.00    -0.547 OA
ENDBRANCH   7   8
BRANCH   7  11
ATOM     11  O   LIG    1        2.091   1.415   0.724  0.00  0.00    -0.381 OA
ATOM     12  H   LIG    1        2.610   1.758  -0.045  0.00  0.00    +0.211 HD
ENDBRANCH   7  11
ENDBRANCH   4   7
TORSDOF 3
