REMARK  Name = ZINC00000725
REMARK                            x       y       z     vdW  Elec       q    Type
REMARK                         _______ _______ _______ _____ _____    ______ ____
ROOT
ATOM      1  C   LIG    1        0.512   0.274  -0.492  0.00  0.00    +0.182 C 
ENDROOT
BRANCH   1   5
ATOM      2  C   LIG    1       -2.895  -2.398  -0.544  0.00  0.00    +0.000 A 
ATOM      3  C   LIG    1       -1.613  -2.911  -0.721  0.00  0.00    +0.000 A 
ATOM      4  C   LIG    1       -0.509  -2.056  -0.695  0.00  0.00    +0.006 A 
ATOM      5  C   LIG    1       -0.675  -0.673  -0.509  0.00  0.00    -0.016 A 
ATOM      6  C   LIG    1       -1.972  -0.174  -0.320  0.00  0.00    +0.006 A 
ATOM      7  C   LIG    1       -3.075  -1.032  -0.338  0.00  0.00    +0.000 A 
ENDBRANCH   1   5
BRANCH   1   8
ATOM      8  O   LIG    1        1.483  -0.160  -1.453  0.00  0.00    -0.384 OA
ATOM      9  H   LIG    1        0.987  -0.417  -2.250  0.00  0.00    +0.210 HD
ENDBRANCH   1   8
BRANCH   1  10
ATOM     10  C   LIG    1        1.150   0.360   0.904  0.00  0.00    +0.269 C 
BRANCH  10  11
ATOM     11  O   LIG    1        2.289   1.245   0.938  0.00  0.00    -0.448 OA
BRANCH  11  12
ATOM     12  C   LIG    1        2.006   2.558   1.035  0.00  0.00    +0.398 C 
ATOM     13  N   LIG    1        3.146   3.263   1.197  0.00  0.00    -0.295 N 
ATOM     14  H   LIG    1        3.078   4.240   1.437  0.00  0.00    +0.148 HD
ATOM     15  H   LIG    1        4.006   2.760   1.355  0.00  0.00    +0.148 HD
ATOM     16  O   LIG    1        0.892   3.062   1.031  0.00  0.00    -0.227 OA
ENDBRANCH  11  12
ENDBRANCH  10  11
ENDBRANCH   1  10
TORSDOF 5
