REMARK  Name = ZINC00000411
REMARK                            x       y       z     vdW  Elec       q    Type
REMARK                         _______ _______ _______ _____ _____    ______ ____
ROOT
ATOM      1  C   LIG    1        0.636   1.133  -0.617  0.00  0.00    +0.240 C 
ATOM      2  O   LIG    1        1.861   1.353  -0.615  0.00  0.00    -0.287 OA
ENDROOT
BRANCH   1   3
ATOM      3  C   LIG    1       -0.137   0.739   0.650  0.00  0.00    +0.189 C 
ATOM      4  C   LIG    1        0.700   0.934   1.920  0.00  0.00    +0.046 C 
BRANCH   3   5
ATOM      5  O   LIG    1       -0.776  -0.538   0.582  0.00  0.00    -0.369 OA
BRANCH   5   7
ATOM      6  C   LIG    1       -0.725  -2.951   0.616  0.00  0.00    +0.034 C 
ATOM      7  C   LIG    1        0.089  -1.668   0.689  0.00  0.00    +0.157 C 
ENDBRANCH   5   7
ENDBRANCH   3   5
ENDBRANCH   1   3
BRANCH   1   8
ATOM      8  C   LIG    1       -0.195   1.271  -1.912  0.00  0.00    +0.419 C 
BRANCH   8   9
ATOM      9  O   LIG    1        0.585   1.682  -3.018  0.00  0.00    -0.502 OA
ATOM     10  H   LIG    1        1.247   2.296  -2.649  0.00  0.00    +0.288 HD
ENDBRANCH   8   9
BRANCH   8  11
ATOM     11  O   LIG    1       -1.241   2.206  -1.793  0.00  0.00    -0.502 OA
ATOM     12  H   LIG    1       -1.856   1.987  -2.514  0.00  0.00    +0.288 HD
ENDBRANCH   8  11
ENDBRANCH   1   8
TORSDOF 6
