REMARK  Name = ZINC00000053
REMARK                            x       y       z     vdW  Elec       q    Type
REMARK                         _______ _______ _______ _____ _____    ______ ____
ROOT
ATOM      1  C   LIG    1        0.142  -0.047   0.243  0.00  0.00    +0.140 A 
ATOM      2  C   LIG    1        1.012   0.992  -0.126  0.00  0.00    +0.040 A 
ATOM      3  C   LIG    1        2.343   0.913   0.326  0.00  0.00    +0.013 A 
ATOM      4  C   LIG    1        2.785  -0.157   1.111  0.00  0.00    +0.001 A 
ATOM      5  C   LIG    1        1.899  -1.172   1.465  0.00  0.00    +0.004 A 
ATOM      6  C   LIG    1        0.573  -1.115   1.039  0.00  0.00    +0.047 A 
ENDROOT
BRANCH   2   7
ATOM      7  C   LIG    1        0.585   2.177  -0.974  0.00  0.00    +0.075 C 
ATOM      8  O   LIG    1       -0.462   2.057  -1.689  0.00  0.00    -0.545 OA
ATOM      9  O   LIG    1        1.325   3.210  -0.925  0.00  0.00    -0.545 OA
ENDBRANCH   2   7
BRANCH   1  10
ATOM     10  O   LIG    1       -1.224   0.081  -0.082  0.00  0.00    -0.425 OA
BRANCH  10  12
ATOM     11  C   LIG    1       -3.335  -0.454  -0.937  0.00  0.00    +0.136 C 
ATOM     12  C   LIG    1       -1.969  -0.973  -0.594  0.00  0.00    +0.309 C 
ATOM     13  O   LIG    1       -1.617  -2.138  -0.737  0.00  0.00    -0.251 OA
ENDBRANCH  10  12
ENDBRANCH   1  10
TORSDOF 3
