REMARK  Name = ZINC00000226
REMARK                            x       y       z     vdW  Elec       q    Type
REMARK                         _______ _______ _______ _____ _____    ______ ____
ROOT
ATOM      1  C   LIG    1       -0.267  -0.139  -0.002  0.00  0.00    +0.033 A 
ATOM      2  C   LIG    1        0.174  -1.444  -0.258  0.00  0.00    +0.024 A 
ATOM      3  C   LIG    1        1.531  -1.706  -0.488  0.00  0.00    +0.011 A 
ATOM      4  C   LIG    1        2.479  -0.672  -0.468  0.00  0.00    -0.003 A 
ATOM      5  C   LIG    1        2.022   0.632  -0.236  0.00  0.00    +0.011 A 
ATOM      6  C   LIG    1        0.667   0.896  -0.008  0.00  0.00    +0.024 A 
ENDROOT
BRANCH   1   9
ATOM      7  C   LIG    1       -3.766   1.086   0.716  0.00  0.00    +0.109 C 
ATOM      8  C   LIG    1       -2.279   1.246   0.540  0.00  0.00    +0.214 C 
ATOM      9  N   LIG    1       -1.642   0.052   0.258  0.00  0.00    -0.286 N 
ATOM     10  H   LIG    1       -2.205  -0.788   0.256  0.00  0.00    +0.155 HD
ATOM     11  O   LIG    1       -1.776   2.364   0.620  0.00  0.00    -0.276 OA
ENDBRANCH   1   9
BRANCH   4  12
ATOM     12  C   LIG    1        3.954  -0.953  -0.681  0.00  0.00    +0.072 C 
ATOM     13  O   LIG    1        4.746   0.041  -0.644  0.00  0.00    -0.545 OA
ATOM     14  O   LIG    1        4.288  -2.164  -0.877  0.00  0.00    -0.545 OA
ENDBRANCH   4  12
TORSDOF 2
